Version 4
SHEET 1 880 700
WIRE 96 128 -80 128
WIRE 256 128 192 128
WIRE 336 128 256 128
WIRE 496 128 432 128
WIRE 640 128 544 128
WIRE -80 144 -80 128
WIRE 496 144 496 128
WIRE 336 192 336 160
WIRE 432 192 432 160
WIRE 256 224 256 128
WIRE 336 224 256 224
WIRE 448 224 432 224
WIRE 496 224 496 192
WIRE 544 224 544 208
WIRE 544 224 496 224
WIRE 96 256 96 160
WIRE 192 256 192 160
WIRE 448 256 448 224
WIRE 448 256 432 256
WIRE 544 256 544 224
WIRE 640 256 640 208
WIRE -80 272 -80 224
WIRE 336 288 336 256
WIRE 432 288 432 256
FLAG -80 272 0
FLAG 96 256 0
FLAG 192 256 0
FLAG 640 256 0
FLAG 336 288 0
FLAG 432 288 0
FLAG 432 192 0
FLAG 336 192 0
FLAG 544 256 0
SYMBOL tline 144 144 R0
SYMATTR InstName T1
SYMATTR Value Td=245.55n Z0=50
SYMBOL res 624 112 R0
SYMATTR InstName R1
SYMATTR Value 378.6
SYMBOL voltage -80 128 R0
WINDOW 123 0 0 Left 0
WINDOW 39 24 124 Left 2
SYMATTR SpiceLine Rser=50
SYMATTR InstName V1
SYMATTR Value DC 0 AC 10V
SYMBOL tline 384 144 R0
SYMATTR InstName T2
SYMATTR Value Td=4.45n Z0=50
SYMBOL tline 384 240 R0
SYMATTR InstName T3
SYMATTR Value Td=631.5p Z0=50
SYMBOL e 544 112 R0
SYMATTR InstName E1
SYMATTR Value 0.00528262
TEXT 64 424 Left 2 !.ac LIN 400 80Meg 120Meg
TEXT 64 392 Left 2 ;d_min = 0,890 m
TEXT 312 392 Left 2 ;l_t = 0,1263 m
TEXT 64 360 Left 2 ;L = 50 m; u = 2e8 m/s
